RUNSPEC
TITLE
   TEST FOR AUTOMATIC LIFT SWITCHING, DOWNTIME, DELAYED WORKOVERS

DIMENS
    9    9    2  /

NONNC

OIL

WATER

METRIC

WELLDIMS
   18    2    2   10 /

VFPPDIMS
   10    3    3    2    2    1 /

START
   1 'JAN' 1983  /

NSTACK
    4 /

GRID        ================================================

NOGGF

EQUALS
     'DX'     400     /
     'DY'     300     /
     'DZ'     10      /
     'PERMX'  400     /
     'PERMY'  300     /
     'PERMZ'  30      /
     'PORO'   0.3     /
/

BOX

 1  9  1  9  1  1/

TOPS

 2202  2145  2105  2080  2072  2080  2105  2145  2202
 2170  2113  2073  2049  2041  2049  2073  2113  2170
 2147  2090  2050  2026  2018  2026  2050  2090  2147
 2133  2077  2037  2013  2005  2013  2037  2077  2133
 2129  2072  2032  2008  2000  2008  2032  2072  2129
 2133  2077  2037  2013  2005  2013  2037  2077  2133
 2147  2090  2050  2026  2018  2026  2050  2090  2147
 2170  2113  2073  2049  2041  2049  2073  2113  2170
 2202  2145  2105  2080  2072  2080  2105  2145  2202  /

ENDBOX

RPTGRID
   -- Report Levels for Grid Section Data
-- 
'DEPTH' 
   /

PROPS    ===============================================================

SWFN
0.22   0.0   0.48
0.3    0.07  0.27
0.4    0.15  0.21
0.5    0.24  0.17
0.6    0.33  0.14
0.8    0.65  0.07
0.9    0.83  0.03
1.0    1.0   0.0   /

SOF2
0.04   0.0
0.1    0.022
0.2    0.1
0.3    0.24
0.4    0.34
0.5    0.42
0.6    0.5
0.7    0.8125
0.78   1.0    /

PVTW
306.1  1.03 0.000041    0.3  0  / ( BAR RM3/SM3 1/BAR CP )

ROCK
306.1     0.000053    /        ( BAR 1/BAR )

DENSITY
  800   1022  0.9907    /      ( KG/M3 )

PVDO
 100      1.05     1.0
 530      1.01     1.0
   /

RSCONST
 100.0    210.0  /

RPTPROPS
-- 
-- PROPS Reporting Options
-- 
'PVTO' 'PVDO' 
 /

SOLUTION   =============================================================

-- INITIAL CONDITIONS - 400 BARS AT 2070 METERS, OWC AT 2120 METERS
-- TILTED BLOCK EQUILIBRATION
--
EQUIL      1 TABLES    2 NODES IN EACH           METRIC  11:14 21 OCT 83
 2070.00 400.000 2120.00  .00000 1000.00  .00000     0      0      10 /

-- INITIAL SOLUTION REPORTS
--
RPTSOL                                           METRIC  08:46 23 NOV 84
   -- Initialisation Print Output
   -- 
'PRES' 'SWAT' 'SGAS' 'RV' 'FIP=1' 'EQUIL' 'RVVD' /

SUMMARY   ==========================================================
-- SELECT QUANTITIES FOR SUMMARY FILE

FOPR

FWCT

WOPR
'P24'  'P37'  'P64'  /

WWCT
'P24'  'P37'  'P64'  /

WTHP
'P24'  'P37'  'P64'  /

RUNSUM

SCHEDULE  ==========================================================
-- REPORT SWITCHES
RPTSCHED                                         METRIC  09:09 23 NOV 84
   'PRES' 'SWAT' 'RV' 'RESTART=2' 'FIP=1' 'WELLS=2' 'VFPPROD=1' 'SUMMARY=2' 
'CPU=2' 'WELSPECS' 'NEWTON=2' /

NOECHO

-- PRODUCTION WELL VFP TABLE

VFPPROD

   1     2.00000E+03   'LIQ'    'WCT'    'GOR'   /

  1.00000E+03  2.00000E+03  3.00000E+03  4.00000E+03
  5.00000E+03  6.00000E+03  7.00000E+03  8.00000E+03
  9.00000E+03  1.00000E+04
/

  3.00000E+01  8.00000E+01  1.50000E+02
/

  0.00000E-01  4.00000E-01  8.00000E-01
/

  2.00000E+01  1.00000E+02
/

  0.00000E-01  5.00000E+01
/

   1   1   1   1  1.78866E+02  1.80582E+02  1.83249E+02  1.86839E+02
                  1.91336E+02  1.96732E+02  2.03021E+02  2.10199E+02
                  2.18265E+02  2.27215E+02
                /
   2   1   1   1  2.29199E+02  2.30918E+02  2.33590E+02  2.37183E+02
                  2.41682E+02  2.47080E+02  2.53370E+02  2.60549E+02
                  2.68615E+02  2.77565E+02
                /
   3   1   1   1  2.99367E+02  3.01098E+02  3.03785E+02  3.07395E+02
                  3.11912E+02  3.17329E+02  3.23638E+02  3.30837E+02
                  3.38923E+02  3.47894E+02
                /

   1   2   1   1  1.97733E+02  1.99491E+02  2.02244E+02  2.05967E+02
                  2.10650E+02  2.16285E+02  2.22869E+02  2.30398E+02
                  2.38870E+02  2.48284E+02
                /
   2   2   1   1  2.48085E+02  2.49845E+02  2.52599E+02  2.56323E+02
                  2.61005E+02  2.66638E+02  2.73218E+02  2.80742E+02
                  2.89208E+02  2.98615E+02
                /
   3   2   1   1  3.18392E+02  3.20159E+02  3.22921E+02  3.26653E+02
                  3.31342E+02  3.36981E+02  3.43567E+02  3.51096E+02
                  3.59566E+02  3.68976E+02
                /

   1   3   1   1  2.17606E+02  2.19383E+02  2.22192E+02  2.26016E+02
                  2.30847E+02  2.36682E+02  2.43516E+02  2.51347E+02
                  2.60175E+02  2.69997E+02
                /
   2   3   1   1  2.68004E+02  2.69779E+02  2.72585E+02  2.76405E+02
                  2.81230E+02  2.87055E+02  2.93878E+02  3.01698E+02
                  3.10511E+02  3.20316E+02
                /
   3   3   1   1  3.38499E+02  3.40274E+02  3.43078E+02  3.46893E+02
                  3.51711E+02  3.57528E+02  3.64340E+02  3.72145E+02
                  3.80942E+02  3.90730E+02
                /

   1   1   2   1  1.43364E+02  1.44927E+02  1.50647E+02  1.58609E+02
                  1.68051E+02  1.78642E+02  1.90116E+02  2.02450E+02
                  2.15556E+02  2.29555E+02
                /
   2   1   2   1  2.13320E+02  2.15255E+02  2.18576E+02  2.23161E+02
                  2.28956E+02  2.35984E+02  2.44196E+02  2.53577E+02
                  2.64102E+02  2.75770E+02
                /
   3   1   2   1  2.85907E+02  2.87972E+02  2.91238E+02  2.95683E+02
                  3.01299E+02  3.08078E+02  3.16019E+02  3.25116E+02
                  3.35369E+02  3.46774E+02
                /

   1   2   2   1  1.71513E+02  1.72243E+02  1.76212E+02  1.82135E+02
                  1.89615E+02  1.98392E+02  2.08264E+02  2.19228E+02
                  2.31177E+02  2.44080E+02
                /
   2   2   2   1  2.35462E+02  2.37335E+02  2.40474E+02  2.44796E+02
                  2.50275E+02  2.56892E+02  2.64632E+02  2.73489E+02
                  2.83464E+02  2.94551E+02
                /
   3   2   2   1  3.07417E+02  3.09378E+02  3.12485E+02  3.16720E+02
                  3.22075E+02  3.28547E+02  3.36130E+02  3.44823E+02
                  3.54623E+02  3.65529E+02
                /

   1   3   2   1  2.06693E+02  2.07773E+02  2.10699E+02  2.15009E+02
                  2.20574E+02  2.27309E+02  2.35180E+02  2.44152E+02
                  2.54196E+02  2.65286E+02
                /
   2   3   2   1  2.62512E+02  2.64316E+02  2.67243E+02  2.71255E+02
                  2.76340E+02  2.82491E+02  2.89705E+02  2.97977E+02
                  3.07304E+02  3.17685E+02
                /
   3   3   2   1  3.33621E+02  3.35457E+02  3.38375E+02  3.42357E+02
                  3.47400E+02  3.53498E+02  3.60648E+02  3.68849E+02
                  3.78100E+02  3.88398E+02
                /

   1   1   1   2  7.15354E+01  7.78776E+01  8.85665E+01  1.01404E+02
                  1.17933E+02  1.37194E+02  1.59530E+02  1.85187E+02
                  2.13318E+02  2.27215E+02
                /
   2   1   1   2  1.21757E+02  1.28099E+02  1.38800E+02  1.51636E+02
                  1.68180E+02  1.87439E+02  2.09789E+02  2.35445E+02
                  2.63588E+02  2.77565E+02
                /
   3   1   1   2  1.91845E+02  1.98196E+02  2.08916E+02  2.21764E+02
                  2.38332E+02  2.57604E+02  2.79983E+02  3.05654E+02
                  3.33827E+02  3.47894E+02
                /

   1   2   1   2  7.66708E+01  8.32992E+01  9.48591E+01  1.08315E+02
                  1.26204E+02  1.46419E+02  1.70606E+02  1.97545E+02
                  2.28013E+02  2.48284E+02
                /
   2   2   1   2  1.26851E+02  1.33472E+02  1.45038E+02  1.58477E+02
                  1.76372E+02  1.96561E+02  2.20752E+02  2.47655E+02
                  2.78125E+02  2.98615E+02
                /
   3   2   1   2  1.96959E+02  2.03575E+02  2.15151E+02  2.28575E+02
                  2.46481E+02  2.66644E+02  2.90846E+02  3.17711E+02
                  3.48190E+02  3.68976E+02
                /

   1   3   1   2  8.20440E+01  8.88821E+01  1.01278E+02  1.15210E+02
                  1.34411E+02  1.55371E+02  1.81346E+02  2.09283E+02
                  2.42008E+02  2.69997E+02
                /
   2   3   1   2  1.32176E+02  1.38996E+02  1.51390E+02  1.65284E+02
                  1.84480E+02  2.05381E+02  2.31348E+02  2.59206E+02
                  2.91919E+02  3.20316E+02
                /
   3   3   1   2  2.02310E+02  2.09106E+02  2.21499E+02  2.35341E+02
                  2.54532E+02  2.75354E+02  3.01312E+02  3.29062E+02
                  3.61761E+02  3.90730E+02
                /

   1   1   2   2  1.43364E+02  1.44927E+02  7.11495E+01  9.12117E+01
                  1.15831E+02  1.43564E+02  1.76171E+02  2.02450E+02
                  2.15556E+02  2.29555E+02
                /
   2   1   2   2  1.16926E+02  1.25304E+02  1.37341E+02  1.54774E+02
                  1.75437E+02  1.99895E+02  2.29324E+02  2.53577E+02
                  2.64102E+02  2.75770E+02
                /
   3   1   2   2  1.88751E+02  1.97237E+02  2.09269E+02  2.26540E+02
                  2.46985E+02  2.71289E+02  3.00422E+02  3.25116E+02
                  3.35369E+02  3.46774E+02
                /

   1   2   2   2  5.88808E+01  6.58948E+01  7.94251E+01  9.79444E+01
                  1.19326E+02  1.46284E+02  1.75753E+02  2.09604E+02
                  2.31177E+02  2.44080E+02
                /
   2   2   2   2  1.23012E+02  1.30982E+02  1.43342E+02  1.59827E+02
                  1.79128E+02  2.03943E+02  2.31283E+02  2.63168E+02
                  2.83464E+02  2.94551E+02
                /
   3   2   2   2  1.94339E+02  2.02371E+02  2.14729E+02  2.31090E+02
                  2.50314E+02  2.74938E+02  3.02062E+02  3.33848E+02
                  3.54623E+02  3.65529E+02
                /

   1   3   2   2  7.48221E+01  8.15275E+01  9.43262E+01  1.09822E+02
                  1.29938E+02  1.53193E+02  1.80438E+02  2.11352E+02
                  2.45599E+02  2.65286E+02
                /
   2   3   2   2  1.30512E+02  1.37833E+02  1.50484E+02  1.65507E+02
                  1.85164E+02  2.07784E+02  2.34411E+02  2.64562E+02
                  2.98131E+02  3.17685E+02
                /
   3   3   2   2  2.01115E+02  2.08439E+02  2.21090E+02  2.36030E+02
                  2.55661E+02  2.78152E+02  3.04736E+02  3.34721E+02
                  3.68233E+02  3.88398E+02
                /

ECHO

-- DEFINE 7 PRODUCERS AND 4 INJECTORS
WELSPECS
'P24'    'G1'    2  4   1*  'OIL'   -1   /
'P26'    'G1'    2  6   1*  'OIL'   -1   /
'P37'    'G1'    3  7   1*  'OIL'   -1   /
'P45'    'G1'    4  5   1*  'OIL'   -1   /
'P53'    'G2'    5  3   1*  'OIL'   -1   /
'P64'    'G2'    6  4   1*  'OIL'   -1   /
'P75'    'G2'    7  5   1*  'OIL'   -1   /
'I11'    'G1'    1  1   1*  'WAT'   -1   /
'I13'    'G1'    1  3   1*  'WAT'   -1   /
'I17'    'G1'    1  7   1*  'WAT'   -1   /
'I19'    'G1'    1  9   1*  'WAT'   -1   /
/

-- ALL WELLS COMPLETED IN BOTH LAYERS
COMPDAT
'*'   2*   1  2    3*   0.1  /
/

-- PRODUCERS HAVE THP LIMIT OF 100 BARS
WCONPROD
'P*'  'OP'  'THP'   5*   100    100    1   /
/

-- PLACE INJECTORS UNDER GROUP CONTROL
WCONINJE
'I*'  'WAT'  'OPEN'  'GRUP'  2*   530  /
/

-- PRODUCERS HAVE AN EFFICIENCY FACTOR OF 0.7
WEFAC
'P*'  0.7  /
/

-- SWITCH ON ARTIFICIAL LIFT IN A WELL WHEN ITS OIL RATE FALLS
-- BELOW 500 M3/DAY.  ITS EFFICIENCY FACTOR WILL THEN BE 0.5 .
WLIFT
'P*'  500  'OIL'  1*  50  0.5  /
/

-- LIMIT THE FIELD OIL PRODUCTION RATE TO 10,000 M3/DAY
GCONPROD
'FIELD'  'NONE'  10000  3*  'RATE'  /
/

-- SET THE INJECTORS TO REPLACE 0.8 OF THE FIELD VOIDAGE IN TOTAL
GCONINJE
'FIELD'  'WAT'  'VREP'   3*   0.8  /
/

-- CLOSE A CONNECTION WHEN ITS WATER CUT EXCEEDS 0.7
CECON
'P*'  4*   0.7  /
/

-- BUT ALLOW ONLY ONE WORKOVER IN ANY TIME STEP OF 100 DAYS
WORKLIM
101 /

-- STEPS TO 900 DAYS
TSTEP
50  50  8*100
/

END
